Circuit: * C:\Users\seijirom\work\SCF2\SCF-Biquad(real)mod(scaled)1kHz.asc

Warning: Pd = 0 is less than W.
Warning: Ps = 0 is less than W.
Warning: A2 = 0 is too small. Setting to 0.01.
Warning: nsub is ignored because k1 or k2 is given.
Warning: xt is ignored because k1 or k2 is given.
Warning: A2 = 0 is too small. Setting to 0.01.
Warning: nsub is ignored because k1 or k2 is given.
Warning: xt is ignored because k1 or k2 is given.
Warning: A2 = 0 is too small. Setting to 0.01.
Warning: nsub is ignored because k1 or k2 is given.
Warning: xt is ignored because k1 or k2 is given.
Warning: A2 = 0 is too small. Setting to 0.01.
Warning: nsub is ignored because k1 or k2 is given.
Warning: xt is ignored because k1 or k2 is given.
Warning: A2 = 0 is too small. Setting to 0.01.
Warning: nsub is ignored because k1 or k2 is given.
Warning: xt is ignored because k1 or k2 is given.
Warning: A2 = 0 is too small. Setting to 0.01.
Warning: nsub is ignored because k1 or k2 is given.
Warning: xt is ignored because k1 or k2 is given.
Warning: A2 = 0 is too small. Setting to 0.01.
Warning: nsub is ignored because k1 or k2 is given.
Warning: xt is ignored because k1 or k2 is given.
Early termination of direct N-R iteration.
Direct Newton iteration failed to find .op point.  (Use ".option noopiter" to skip.)
Starting Gmin stepping
Gmin = 10
Gmin = 1.07374
vernier = 0.5
vernier = 0.25
vernier = 0.125
vernier = 0.0625
Gmin = 1.08884
vernier = 0.03125
vernier = 0.015625
Gmin = 1.03122
vernier = 0.0078125
vernier = 0.00390625
Gmin = 1.01823
vernier = 0.00520833
vernier = 0.00260417
Gmin = 1.01162
vernier = 0.00347222
vernier = 0.00173611
vernier = 0.00231481
vernier = 0.00115741
Gmin = 1.00877
vernier = 0.00154321
vernier = 0.000771604
Gmin = 1.00673
vernier = 0.00102881
vernier = 0.000514403
vernier = 0.00068587
Gmin = 1.00553
vernier = 0.000514403
vernier = 0.00068587
vernier = 0.000514402
Gmin = 1.00475
Gmin = 0
Gmin stepping failed

Starting source stepping with srcstepmethod=0
Source Step = 3.0303%
Source Step = 33.3333%
Source Step = 63.6364%
Source Step = 93.9394%
Source stepping succeeded in finding the operating point.


Date: Thu Nov 12 11:32:43 2020
Total elapsed time: 515.032 seconds.

tnom = 27
temp = 27
method = modified trap
totiter = 545427
traniter = 539525
tranpoints = 245105
accept = 186148
rejected = 58957
matrix size = 58
fillins = 391
solver = Normal
Thread vector: 203.6/81.1[4] 66.4/25.0[4] 7.6/6.1[2] 1.7/19.2[1]  2592/500
Matrix Compiler1: 61.04 KB object code size  25.6/20.0/[9.8]
Matrix Compiler2: 15.45 KB object code size  5.0/4.4/[2.6]

