Circuit: * Z:\home\anagix\work\SCF2\SCF-Symbol_test.tmp

Limiting rise time of source vin2 to 5e-007
Limiting fall time of source vin2 to 5e-007
Warning: A2 = 0 is too small. Setting to 0.01.
Warning: nsub is ignored because k1 or k2 is given.
Warning: xt is ignored because k1 or k2 is given.
Warning: A2 = 0 is too small. Setting to 0.01.
Warning: nsub is ignored because k1 or k2 is given.
Warning: xt is ignored because k1 or k2 is given.
Warning: A2 = 0 is too small. Setting to 0.01.
Warning: nsub is ignored because k1 or k2 is given.
Warning: xt is ignored because k1 or k2 is given.
Warning: A2 = 0 is too small. Setting to 0.01.
Warning: nsub is ignored because k1 or k2 is given.
Warning: xt is ignored because k1 or k2 is given.
Warning: A2 = 0 is too small. Setting to 0.01.
Warning: nsub is ignored because k1 or k2 is given.
Warning: xt is ignored because k1 or k2 is given.
Warning: A2 = 0 is too small. Setting to 0.01.
Warning: nsub is ignored because k1 or k2 is given.
Warning: xt is ignored because k1 or k2 is given.
Warning: A2 = 0 is too small. Setting to 0.01.
Warning: nsub is ignored because k1 or k2 is given.
Warning: xt is ignored because k1 or k2 is given.
Warning: A2 = 0 is too small. Setting to 0.01.
Warning: nsub is ignored because k1 or k2 is given.
Warning: xt is ignored because k1 or k2 is given.
Warning: Pd = 9.8e-005 is less than W.
Warning: Ps = 9.8e-005 is less than W.
Warning: A2 = 0 is too small. Setting to 0.01.
Warning: nsub is ignored because k1 or k2 is given.
Warning: xt is ignored because k1 or k2 is given.
Warning: Pd = 9.8e-005 is less than W.
Warning: Ps = 9.8e-005 is less than W.
Warning: A2 = 0 is too small. Setting to 0.01.
Warning: nsub is ignored because k1 or k2 is given.
Warning: xt is ignored because k1 or k2 is given.
Warning: A2 = 0 is too small. Setting to 0.01.
Warning: nsub is ignored because k1 or k2 is given.
Warning: xt is ignored because k1 or k2 is given.
Warning: A2 = 0 is too small. Setting to 0.01.
Warning: nsub is ignored because k1 or k2 is given.
Warning: xt is ignored because k1 or k2 is given.
Warning: Pd = 0 is less than W.
Warning: Ps = 0 is less than W.
Warning: A2 = 0 is too small. Setting to 0.01.
Warning: nsub is ignored because k1 or k2 is given.
Warning: xt is ignored because k1 or k2 is given.
Warning: A2 = 0 is too small. Setting to 0.01.
Warning: nsub is ignored because k1 or k2 is given.
Warning: xt is ignored because k1 or k2 is given.
Warning: A2 = 0 is too small. Setting to 0.01.
Warning: nsub is ignored because k1 or k2 is given.
Warning: xt is ignored because k1 or k2 is given.
Warning: A2 = 0 is too small. Setting to 0.01.
Warning: nsub is ignored because k1 or k2 is given.
Warning: xt is ignored because k1 or k2 is given.
Warning: A2 = 0 is too small. Setting to 0.01.
Warning: nsub is ignored because k1 or k2 is given.
Warning: xt is ignored because k1 or k2 is given.
Warning: A2 = 0 is too small. Setting to 0.01.
Warning: nsub is ignored because k1 or k2 is given.
Warning: xt is ignored because k1 or k2 is given.
Warning: A2 = 0 is too small. Setting to 0.01.
Warning: nsub is ignored because k1 or k2 is given.
Warning: xt is ignored because k1 or k2 is given.
Early termination of direct N-R iteration.
Direct Newton iteration failed to find .op point.  (Use ".option noopiter" to skip.)
Starting Gmin stepping
Gmin = 10
Gmin = 1.07374
vernier = 0.5
vernier = 0.25
vernier = 0.125
vernier = 0.0625
Gmin = 1.08884
vernier = 0.03125
vernier = 0.015625
Gmin = 1.03122
vernier = 0.0078125
vernier = 0.00390625
Gmin = 1.01823
vernier = 0.00520833
vernier = 0.00260417
Gmin = 1.01162
vernier = 0.00347222
vernier = 0.00173611
vernier = 0.00231481
vernier = 0.00115741
Gmin = 1.00877
vernier = 0.00154321
vernier = 0.000771604
Gmin = 1.00673
vernier = 0.00102881
vernier = 0.000514403
vernier = 0.00068587
Gmin = 1.00553
vernier = 0.000514403
vernier = 0.00068587
vernier = 0.000514402
Gmin = 1.00475
Gmin = 0
Gmin stepping failed

Starting source stepping with srcstepmethod=0
Source Step = 3.0303%
Source Step = 33.3333%
Source Step = 63.6364%
Source Step = 93.9394%
Source stepping succeeded in finding the operating point.


Date: Sun Nov 22 22:16:07 2020
Total elapsed time: 40.965 seconds.

tnom = 27
temp = 27
method = modified trap
totiter = 620302
traniter = 614383
tranpoints = 239970
accept = 172499
rejected = 67471
matrix size = 68
fillins = 498
solver = Normal
Thread vector: 110.1/41.2[7] 18.3/9.5[7] 3.5/5.1[1] 0.5/3.5[1]  2592/500
Matrix Compiler1: 90.22 KB object code size  19.9/12.1/[4.9]
Matrix Compiler2: 18.83 KB object code size  3.6/2.7/[0.6]

